Version 4
SHEET 1 1024 680
WIRE 208 32 192 32
WIRE 240 32 208 32
WIRE 112 144 112 32
WIRE 112 144 0 144
WIRE 208 144 208 32
WIRE 208 144 176 144
WIRE 256 144 208 144
WIRE 320 144 320 32
WIRE 400 144 320 144
WIRE 512 144 480 144
WIRE 512 160 512 144
WIRE 0 176 0 144
WIRE 512 272 512 240
FLAG 0 256 0
FLAG 0 144 Vbat
FLAG 512 272 0
FLAG 512 144 Vload
SYMBOL voltage 0 160 R0
WINDOW 123 0 0 Left 0
WINDOW 39 0 0 Left 0
SYMATTR InstName Vb
SYMATTR Value 10
SYMBOL cap 320 128 R90
WINDOW 0 0 32 VBottom 2
WINDOW 3 32 32 VTop 2
SYMATTR InstName C1
SYMATTR Value 1µ
SYMBOL cap 176 128 R90
WINDOW 0 0 32 VBottom 2
WINDOW 3 32 32 VTop 2
SYMATTR InstName C2
SYMATTR Value 1µ
SYMBOL res 496 128 R90
WINDOW 0 0 56 VBottom 2
WINDOW 3 32 56 VTop 2
SYMATTR InstName R0
SYMATTR Value 100
SYMBOL res 336 16 R90
WINDOW 0 0 56 VBottom 2
WINDOW 3 32 56 VTop 2
SYMATTR InstName R1
SYMATTR Value 100
SYMBOL res 208 16 R90
WINDOW 0 0 56 VBottom 2
WINDOW 3 32 56 VTop 2
SYMATTR InstName R2
SYMATTR Value 100
SYMBOL current 512 160 R0
WINDOW 123 0 0 Left 0
WINDOW 39 0 0 Left 0
SYMATTR InstName Vl
SYMATTR Value PULSE(0 100m 10u 10u 10u 100u 200u)
TEXT -42 296 Left 2 !.tran 0 1m 0 1u
